Circuit: * C:\Users\luish\OneDrive\Área de Trabalho\s6\Elt2\trab\amp_op\CIRC-AMP-OP\LM741.asc

Direct Newton iteration failed to find .op point.  (Use ".option noopiter" to skip.)
Starting Gmin stepping
Gmin = 10
Gmin = 1.07374
Gmin = 0.115292
Gmin = 0.0123794
Gmin = 0.00132923
Gmin = 0.000142725
Gmin = 1.5325e-05
Gmin = 1.6455e-06
Gmin = 1.76685e-07
Gmin = 1.89714e-08
Gmin = 2.03704e-09
Gmin = 2.18725e-10
Gmin = 2.34854e-11
Gmin = 2.52173e-12
Gmin = 2.70769e-13
Gmin = 0
Gmin stepping succeeded in finding the operating point.


Date: Wed Jan 22 00:57:34 2025
Total elapsed time: 0.149 seconds.

tnom = 27
temp = 27
method = trap
totiter = 623
traniter = 0
tranpoints = 0
accept = 0
rejected = 0
matrix size = 170
fillins = 184
solver = Normal
Avg thread counts: 2.6/0.0/6.6/1.9
Matrix Compiler1:    1400 opcodes
Matrix Compiler2: 19.53 KB object code size  2.0/2.1/[0.9]

